{{Infobox_Company
|company_name    = ANSYS公司
|company_name_en = ANSYS, Inc.
|company_type   = [[上市公司|上市公司]]（{{nasdaq|ANSS}}）
|company_logo   = [[File:ANSYS_logo.png|250px]]
|foundation     = 1970年
|location       = {{flagicon|USA}} [[美国|美国]][[宾夕法尼亚州|宾夕法尼亚州]][[卡农斯堡|卡农斯堡]]（Canonsburg）
|key_people     = [[Peter_J._Smith|Peter J. Smith]], 主席<br />[[James_E._Cashman,_III|James E. Cashman, III]], 总裁及CEO
|industry       = [[电脑软件|电脑软件]]
|products         = [[ANSYS|ANSYS Multiphysics]]<br /> [[ANSYS|ANSYS CFX]]<br /> [[ANSYS|ANSYS FLUENT]]<br /> [[ANSYS|ANSYS Workbench]]<br /> [[HFSS|HFSS]]<br/>（参见[[#主要产品|主要产品]]）
|num_employees    = 约1,600 (2010) 
| market cap       = [[美元|US$]]38亿<ref name=zenobank>{{cite web |url=http://www.zenobank.com/index.php?symbol=ANSS&page=quotesearch |title=Company Profile for ANSYS Inc (ANSS) |accessdate=2008-10-20 |archive-url=https://web.archive.org/web/20090325152740/http://www.zenobank.com/index.php?symbol=ANSS&page=quotesearch |archive-date=2009-03-25 |dead-url=yes }}</ref>
| revenue = {{profit}}[[美元|US$]]5.17亿 <small>(''FY 2009'')</small><ref name = 2009IncomeStatmenent/>
| net_income = {{profit}}[[美元|US$]]1.16亿 <small>(''FY 2009'')</small><ref name = 2009IncomeStatmenent>[[wikinvest:stock/ANSYS_(ANSS)/Data/Income_Statement|ANSYS (ANSS) annual SEC income statement filing via Wikinvest.]]</ref>
| assets = {{increase}}[[美元|US$]]19.2亿 <small>(''FY 2009'')</small><ref name = 2009BalanceSheet/>
| equity = {{increase}}[[美元|US$]]13.1亿 <small>(''FY 2009'')</small><ref name = 2009BalanceSheet/>
| operating_income ={{increase}}[[美元|US$]]1.83亿 <small>(''FY 2009'')</small><ref name = 2009BalanceSheet>[[wikinvest:stock/ANSYS_(ANSS)/Data/Balance_Sheet|ANSYS (ANSS) annual SEC balance sheet filing via Wikinvest.]]</ref>
|homepage= [http://www.ansys.com/ www.ansys.com]
}}
[[Image:ANSYS_Headquarters.jpg|thumb]]
[[Image:Ansys_Divisions.png|thumb]]
[[Image:Ansys_History.gif|thumb]]

'''ANSYS公司'''由[[John_A._Swanson|John A. Swanson]]于1970年成立，其原名为“Swanson分析系统公司”（Swanson Analysis Systems, Inc.）。ANSYS公司总部位于美国宾夕法尼亚洲的匹兹堡，全球拥有40多个代理商和/或子公司。ANSYS及其子公司有5000多名员工，在40多个国家销售其产品。

ANSYS公司致力于工程[[模擬|模擬]]软件和技术的研发，其主要产品[[ANSYS|ANSYS]]在全球众多行业中被工程师和设计师广泛采用。ANSYS公司重点开发开放、灵活的，对设计直接进行仿真的解决方案，提供从概念设计到最终测试产品研发全过程的统一平台，同时追求快速、高效和和成本意识的产品开发。公司和其全球网络的渠道合作伙伴为客户提供销售、培训和技术支持一体化服务。

==主要产品==
* Ansys CFX
* Ansys Classic
* Ansys {{link-en|HFSS|HFSS}}
* Ansys ICEM CFD
* Ansys Workbench
* Fluent
* HFSS
* RedHawk/RedHawk-SC
* Icepak

==并购==
自2000年开始，ANSYS公司并购了一系列公司，包括ICEM CFD Engineering，CADOE，CFX，Century Dynamics，Harvard Thermal，[[Fluent公司|Fluent公司]]（2006年2月16日），Ansoft公司（2008年），Apache公司(2015年)以及Livermore Software Technology Corporation (LSTC)（2019年）。

==参考文献==
{{reflist}}

==外部链接==
* {{official|http://www.ansys.com}}
* [http://ansys.net/ ANSYS resource page]{{Wayback|url=http://ansys.net/ |date=20101228235917 }}

{{CAE software}}

[[Category:软件公司|Category:软件公司]]
[[category:標準普爾500指數成分股|category:標準普爾500指數成分股]]